246
New structure                           
Co    5.652903    8.566403    1.333522
Co    0.278856   17.888351    1.333522
Co   16.422299    8.556273    1.333522
Co    5.375972    8.864616    4.800679
Co   -0.032446   18.172933    4.800679
Co   16.130086    8.853728    4.800679
 O   -0.993874   16.557261    1.333522
 O    1.556233   16.554369    1.333522
 O   -4.587785   10.324437    1.333522
 O   -3.310069    8.116855    1.333522
 O    3.860704    8.127888    1.333522
 O    5.133717   10.336844    1.333522
 O   15.906382    6.782478    1.333522
 O   14.631205    8.991945    1.333522
 O   12.321632    0.577992    1.333522
 O    9.771093    0.578909    1.333522
 O    6.168474    6.795571    1.333522
 O    7.442760    9.003198    1.333522
 O   -1.308234   16.838283    4.800679
 O    1.241712   16.840289    4.800679
 O   -4.882677   10.627486    4.800679
 O   -3.605065    8.419538    4.800679
 O    3.587511    8.424782    4.800679
 O    4.857064   10.635576    4.800679
 O   15.611357    7.085556    4.800679
 O   14.336312    9.294722    4.800679
 O   12.006506    0.858783    4.800679
 O    9.457079    0.864571    4.800679
 O    5.891749    7.093772    4.800679
 O    7.169674    9.300358    4.800679
 C    0.997785   10.413682    1.333522
 C    1.722376   11.671551    1.333522
 C    1.001649   12.927452    1.333522
 C   -0.449987   12.926466    1.333522
 C   -1.173912   11.669549    1.333522
 C   -0.448930   10.411009    1.333522
 C    1.713715    9.203794    1.333522
 C    3.104792    9.202432    1.333522
 C    3.824284   10.451267    1.333522
 C    3.127466   11.655297    1.333522
 C    1.694561   14.151152    1.333522
 C    1.001563   15.360533    1.333522
 C   -0.438146   15.360626    1.333522
 C   -1.135339   14.156139    1.333522
 C   -2.580908   11.646984    1.333522
 C   -3.274527   10.440500    1.333522
 C   -2.554610    9.193042    1.333522
 C   -1.160898    9.198469    1.333522
 C    9.586419    5.455616    1.333522
 C   10.312500    6.712095    1.333522
 C   11.762563    6.708749    1.333522
 C   12.490426    5.451979    1.333522
 C   11.766986    4.200559    1.333522
 C   10.314884    4.202449    1.333522
 C    8.179461    5.471389    1.333522
 C    7.481418    6.677339    1.333522
 C    8.201303    7.923591    1.333522
 C    9.593516    7.922311    1.333522
 C   12.484435    7.915390    1.333522
 C   13.876094    7.913209    1.333522
 C   14.597400    6.665951    1.333522
 C   13.896811    5.462486    1.333522
 C   12.460234    2.976827    1.333522
 C   11.768370    1.769670    1.333522
 C   10.327188    1.770879    1.333522
 C    9.630095    2.975352    1.333522
 C    0.711383   10.706979    4.800679
 C    1.434576   11.965166    4.800679
 C    0.703409   13.216598    4.800679
 C   -0.748531   13.215880    4.800679
 C   -1.469184   11.962785    4.800679
 C   -0.738950   10.707121    4.800679
 C    1.434266    9.499132    4.800679
 C    2.826508    9.502563    4.800679
 C    3.543678   10.750403    4.800679
 C    2.841655   11.953885    4.800679
 C    1.386153   14.444637    4.800679
 C    0.687174   15.647706    4.800679
 C   -0.753880   15.646999    4.800679
 C   -1.443830   14.438622    4.800679
 C   -2.875412   11.949997    4.800679
 C   -3.573950   10.745480    4.800679
 C   -2.851022    9.499157    4.800679
 C   -1.459108    9.499250    4.800679
 C    9.298344    5.749199    4.800679
 C   10.025919    7.005364    4.800679
 C   11.472436    7.004921    4.800679
 C   12.195100    5.745264    4.800679
 C   11.468276    4.489919    4.800679
 C   10.016421    4.491451    4.800679
 C    7.893448    5.769992    4.800679
 C    7.200721    6.976387    4.800679
 C    7.922941    8.223654    4.800679
 C    9.313803    8.217639    4.800679
 C   12.186216    8.216243    4.800679
 C   13.579701    8.219394    4.800679
 C   14.297927    6.970986    4.800679
 C   13.602246    5.765506    4.800679
 C   12.151568    3.259250    4.800679
 C   11.452425    2.056056    4.800679
 C   10.012797    2.057954    4.800679
 C    9.321656    3.268661    4.800679
 H   -2.222131   14.208946    1.333522
 H    2.781048   14.198759    1.333522
 H   -3.171488   12.560756    1.333522
 H   -0.658770    8.234074    1.333522
 H    3.716298   12.569289    1.333522
 H    1.216621    8.237114    1.333522
 H   14.481407    4.545997    1.333522
 H   11.989251    8.883952    1.333522
 H   13.546065    2.927341    1.333522
 H    8.543926    2.919847    1.333522
 H   10.093854    8.888396    1.333522
 H    7.593182    4.555084    1.333522
 H   -2.529699   14.486191    4.800679
 H    2.472158   14.501792    4.800679
 H   -3.461560   12.865525    4.800679
 H   -0.962239    8.531502    4.800679
 H    3.424420   12.872366    4.800679
 H    0.937509    8.531161    4.800679
 H   14.191265    4.850694    4.800679
 H   11.685727    9.181459    4.800679
 H   13.238263    3.204686    4.800679
 H    8.235134    3.223004    4.800679
 H    9.814473    9.182422    4.800679
 H    7.301322    4.858111    4.800679
 O   -0.994693   19.222673    1.333522
 O    1.555846   19.221756    1.333522
 O   16.939284   10.324437    1.333522
 O   18.217000    8.116855    1.333522
 O   -1.308707   19.508335    4.800679
 O    1.240720   19.502546    4.800679
 O   16.644392   10.627486    4.800679
 O   17.922004    8.419538    4.800679
 C   -0.438598   20.414643    1.333522
 C    1.002584   20.413434    1.333522
 C   18.252542   10.440500    1.333522
 C   18.972459    9.193042    1.333522
 C   -0.752989   20.701717    4.800679
 C    0.686639   20.699820    4.800679
 C   17.953119   10.745480    4.800679
 C   18.676047    9.499157    4.800679
 C   -1.135691   21.619116    1.333522
 C    1.694448   21.620591    1.333522
 C   18.946161   11.646984    1.333522
 C   20.366171    9.198469    1.333522
 C   -1.444130   21.912424    4.800679
 C    1.385782   21.903013    4.800679
 C   18.651657   11.949997    4.800679
 C   20.067961    9.499250    4.800679
 H   -2.221860   21.563611    1.333522
 C   -0.450902   22.846213    1.333522
 C    1.001200   22.844323    1.333522
 H    2.780279   21.571104    1.333522
 C   20.353157   11.669549    1.333522
 H   18.355581   12.560756    1.333522
 C   21.078139   10.411009    1.333522
 H   20.868299    8.234074    1.333522
 H   -2.530652   21.866767    4.800679
 C   -0.749365   23.135214    4.800679
 C    0.702490   23.133682    4.800679
 H    2.472477   21.848450    4.800679
 C   20.057885   11.962785    4.800679
 H   18.065509   12.865525    4.800679
 H   20.564830    8.531502    4.800679
 C   20.788119   10.707121    4.800679
 C   -1.179367   24.099379    1.333522
 C    1.724640   24.095743    1.333522
 C   21.077082   12.926466    1.333522
 C   22.524854   10.413682    1.333522
 C   -1.467442   24.392962    4.800679
 C    1.429314   24.389027    4.800679
 C   20.778538   13.215880    4.800679
 C   22.238453   10.706979    4.800679
 C   -0.453286   25.355859    1.333522
 C   -2.586325   24.115153    1.333522
 C    0.996777   25.352512    1.333522
 C    3.131025   24.106249    1.333522
 C   20.391730   14.156139    1.333522
 C   22.528718   12.927452    1.333522
 C   23.240784    9.203794    1.333522
 C   23.249445   11.671551    1.333522
 C   -0.739867   25.649128    4.800679
 C   -2.872338   24.413755    4.800679
 C    0.706650   25.648684    4.800679
 C    2.836460   24.409269    4.800679
 C   20.083239   14.438622    4.800679
 C   22.230478   13.216598    4.800679
 C   22.961335    9.499132    4.800679
 C   22.961645   11.965166    4.800679
 C   -1.172270   26.566075    1.333522
 H   -3.172604   23.198848    1.333522
 C   -3.284368   25.321102    1.333522
 C    1.718649   26.559154    1.333522
 H    3.715621   23.189761    1.333522
 C    3.831614   25.309715    1.333522
 H   19.304938   14.208946    1.333522
 C   21.088923   15.360626    1.333522
 C   23.221630   14.151152    1.333522
 H   22.743691    8.237114    1.333522
 C   24.631862    9.202432    1.333522
 C   24.654535   11.655297    1.333522
 C   -1.451983   26.861403    4.800679
 H   -3.464464   23.501874    4.800679
 C   -3.565065   25.620151    4.800679
 C    1.420430   26.860007    4.800679
 H    3.425479   23.494458    4.800679
 C    3.532141   25.614749    4.800679
 H   18.997370   14.486191    4.800679
 C   20.773189   15.646999    4.800679
 C   22.913222   14.444637    4.800679
 H   22.464578    8.531161    4.800679
 C   24.353577    9.502563    4.800679
 C   24.368724   11.953885    4.800679
 C   -2.564483   26.567354    1.333522
 H   -0.671932   27.532160    1.333522
 O   -4.597311   25.439334    1.333522
 H    1.223466   27.527715    1.333522
 C    3.110308   26.556972    1.333522
 O    5.140596   25.426241    1.333522
 C   22.528632   15.360533    1.333522
 O   20.533195   16.557261    1.333522
 H   24.308117   14.198759    1.333522
 O   25.387773    8.127888    1.333522
 C   25.351353   10.451267    1.333522
 H   25.243367   12.569289    1.333522
 C   -2.842845   26.867417    4.800679
 H   -0.951313   27.826185    4.800679
 O   -4.874037   25.737535    4.800679
 H    0.919941   27.825223    4.800679
 C    2.813915   26.863157    4.800679
 O    4.845571   25.729320    4.800679
 C   22.214243   15.647706    4.800679
 O   20.218835   16.838283    4.800679
 H   23.999227   14.501792    4.800679
 O   25.114580    8.424782    4.800679
 C   25.070747   10.750403    4.800679
 H   24.951489   12.872366    4.800679
 O   -3.323026   27.646961    1.333522
 O    3.865419   27.635708    1.333522
 O   23.083302   16.554369    1.333522
 O   26.660786   10.336844    1.333522
 O   -3.596112   27.944121    4.800679
 O    3.570526   27.938485    4.800679
 O   22.768781   16.840289    4.800679
 O   26.384133   10.635576    4.800679
